
 OpenBabel07122314393D

112110  0  0  0  0  0  0  0  0999 V2000
   20.7370   13.0920    2.1210 C   0  0  0  0  0  0  0  0  0  0  0  0
   20.0640   11.7210    1.9970 C   0  0  0  0  0  0  0  0  0  0  0  0
   18.5390   11.7840    2.1460 C   0  0  0  0  0  0  0  0  0  0  0  0
   17.8560   10.4170    2.0220 C   0  0  0  0  0  0  0  0  0  0  0  0
   16.3300   10.4860    2.1570 C   0  0  0  0  0  0  0  0  0  0  0  0
   15.6440    9.1220    2.0260 C   0  0  0  0  0  0  0  0  0  0  0  0
   14.1170    9.1960    2.1460 C   0  0  0  0  0  0  0  0  0  0  0  0
   13.4270    7.8350    2.0050 C   0  0  0  0  0  0  0  0  0  0  0  0
   11.9000    7.9160    2.1160 C   0  0  0  0  0  0  0  0  0  0  0  0
   11.2040    6.5570    1.9720 C   0  0  0  0  0  0  0  0  0  0  0  0
    9.6780    6.6440    2.0840 C   0  0  0  0  0  0  0  0  0  0  0  0
    8.9760    5.2880    1.9450 C   0  0  0  0  0  0  0  0  0  0  0  0
    7.4510    5.3790    2.0670 C   0  0  0  0  0  0  0  0  0  0  0  0
    6.7460    4.0240    1.9390 C   0  0  0  0  0  0  0  0  0  0  0  0
    5.2220    4.1160    2.0780 C   0  0  0  0  0  0  0  0  0  0  0  0
    4.5160    2.7600    1.9640 C   0  0  0  0  0  0  0  0  0  0  0  0
    2.9930    2.8500    2.1200 C   0  0  0  0  0  0  0  0  0  0  0  0
    2.2970    1.4890    2.0140 C   0  0  0  0  0  0  0  0  0  0  0  0
    1.2110    1.5880    2.1190 H   0  0  0  0  0  0  0  0  0  0  0  0
   20.5420   13.5360    3.1040 H   0  0  0  0  0  0  0  0  0  0  0  0
   21.8220   13.0160    1.9940 H   0  0  0  0  0  0  0  0  0  0  0  0
   20.3570   13.7840    1.3610 H   0  0  0  0  0  0  0  0  0  0  0  0
   20.3110   11.2780    1.0230 H   0  0  0  0  0  0  0  0  0  0  0  0
   20.4720   11.0420    2.7580 H   0  0  0  0  0  0  0  0  0  0  0  0
   18.2890   12.2270    3.1200 H   0  0  0  0  0  0  0  0  0  0  0  0
   18.1300   12.4630    1.3840 H   0  0  0  0  0  0  0  0  0  0  0  0
   18.1130    9.9710    1.0510 H   0  0  0  0  0  0  0  0  0  0  0  0
   18.2570    9.7410    2.7890 H   0  0  0  0  0  0  0  0  0  0  0  0
   16.0730   10.9290    3.1300 H   0  0  0  0  0  0  0  0  0  0  0  0
   15.9300   11.1670    1.3930 H   0  0  0  0  0  0  0  0  0  0  0  0
   15.9090    8.6750    1.0570 H   0  0  0  0  0  0  0  0  0  0  0  0
   16.0350    8.4430    2.7970 H   0  0  0  0  0  0  0  0  0  0  0  0
   13.8520    9.6380    3.1170 H   0  0  0  0  0  0  0  0  0  0  0  0
   13.7280    9.8800    1.3790 H   0  0  0  0  0  0  0  0  0  0  0  0
   13.6960    7.3900    1.0370 H   0  0  0  0  0  0  0  0  0  0  0  0
   13.8100    7.1520    2.7770 H   0  0  0  0  0  0  0  0  0  0  0  0
   11.6310    8.3580    3.0860 H   0  0  0  0  0  0  0  0  0  0  0  0
   11.5180    8.6010    1.3470 H   0  0  0  0  0  0  0  0  0  0  0  0
   11.4720    6.1130    1.0040 H   0  0  0  0  0  0  0  0  0  0  0  0
   11.5850    5.8720    2.7430 H   0  0  0  0  0  0  0  0  0  0  0  0
    9.4120    7.0890    3.0530 H   0  0  0  0  0  0  0  0  0  0  0  0
    9.2970    7.3300    1.3140 H   0  0  0  0  0  0  0  0  0  0  0  0
    9.2370    4.8410    0.9750 H   0  0  0  0  0  0  0  0  0  0  0  0
    9.3590    4.6020    2.7140 H   0  0  0  0  0  0  0  0  0  0  0  0
    7.1940    5.8290    3.0370 H   0  0  0  0  0  0  0  0  0  0  0  0
    7.0660    6.0630    1.2980 H   0  0  0  0  0  0  0  0  0  0  0  0
    6.9950    3.5750    0.9680 H   0  0  0  0  0  0  0  0  0  0  0  0
    7.1370    3.3400    2.7060 H   0  0  0  0  0  0  0  0  0  0  0  0
    4.9760    4.5700    3.0490 H   0  0  0  0  0  0  0  0  0  0  0  0
    4.8280    4.7960    1.3110 H   0  0  0  0  0  0  0  0  0  0  0  0
    4.7540    2.3070    0.9910 H   0  0  0  0  0  0  0  0  0  0  0  0
    4.9170    2.0790    2.7280 H   0  0  0  0  0  0  0  0  0  0  0  0
    2.7580    3.3070    3.0910 H   0  0  0  0  0  0  0  0  0  0  0  0
    2.5930    3.5270    1.3540 H   0  0  0  0  0  0  0  0  0  0  0  0
    2.5000    1.0190    1.0450 H   0  0  0  0  0  0  0  0  0  0  0  0
    2.6510    0.8070    2.7960 H   0  0  0  0  0  0  0  0  0  0  0  0
    4.9690    4.7110   -2.0530 C   0  0  0  0  0  0  0  0  0  0  0  0
    4.2860    3.3440   -2.1770 C   0  0  0  0  0  0  0  0  0  0  0  0
    2.7610    3.4070   -2.0280 C   0  0  0  0  0  0  0  0  0  0  0  0
    2.0880    2.0360   -2.1520 C   0  0  0  0  0  0  0  0  0  0  0  0
    6.4940    4.6420   -2.1890 C   0  0  0  0  0  0  0  0  0  0  0  0
    7.1810    6.0070   -2.0570 C   0  0  0  0  0  0  0  0  0  0  0  0
    8.7070    5.9320   -2.1770 C   0  0  0  0  0  0  0  0  0  0  0  0
    9.3980    7.2930   -2.0360 C   0  0  0  0  0  0  0  0  0  0  0  0
   10.9250    7.2120   -2.1470 C   0  0  0  0  0  0  0  0  0  0  0  0
   11.6200    8.5710   -2.0030 C   0  0  0  0  0  0  0  0  0  0  0  0
   13.1470    8.4840   -2.1150 C   0  0  0  0  0  0  0  0  0  0  0  0
   13.8480    9.8410   -1.9760 C   0  0  0  0  0  0  0  0  0  0  0  0
   15.3730    9.7490   -2.0980 C   0  0  0  0  0  0  0  0  0  0  0  0
   16.0780   11.1050   -1.9700 C   0  0  0  0  0  0  0  0  0  0  0  0
   17.6020   11.0120   -2.1100 C   0  0  0  0  0  0  0  0  0  0  0  0
   18.3080   12.3680   -1.9950 C   0  0  0  0  0  0  0  0  0  0  0  0
   19.8310   12.2780   -2.1510 C   0  0  0  0  0  0  0  0  0  0  0  0
   20.5270   13.6390   -2.0460 C   0  0  0  0  0  0  0  0  0  0  0  0
   21.6130   13.5410   -2.1510 H   0  0  0  0  0  0  0  0  0  0  0  0
   20.1730   14.3210   -2.8280 H   0  0  0  0  0  0  0  0  0  0  0  0
   20.0660   11.8210   -3.1220 H   0  0  0  0  0  0  0  0  0  0  0  0
   20.2310   11.6010   -1.3850 H   0  0  0  0  0  0  0  0  0  0  0  0
   18.0700   12.8220   -1.0230 H   0  0  0  0  0  0  0  0  0  0  0  0
   17.9070   13.0490   -2.7600 H   0  0  0  0  0  0  0  0  0  0  0  0
   17.8480   10.5580   -3.0800 H   0  0  0  0  0  0  0  0  0  0  0  0
   17.9960   10.3320   -1.3420 H   0  0  0  0  0  0  0  0  0  0  0  0
   15.8290   11.5540   -0.9990 H   0  0  0  0  0  0  0  0  0  0  0  0
   15.6870   11.7880   -2.7370 H   0  0  0  0  0  0  0  0  0  0  0  0
   15.6300    9.2990   -3.0680 H   0  0  0  0  0  0  0  0  0  0  0  0
   15.7590    9.0660   -1.3290 H   0  0  0  0  0  0  0  0  0  0  0  0
   13.5880   10.2870   -1.0060 H   0  0  0  0  0  0  0  0  0  0  0  0
   13.4650   10.5260   -2.7450 H   0  0  0  0  0  0  0  0  0  0  0  0
   13.4120    8.0390   -3.0840 H   0  0  0  0  0  0  0  0  0  0  0  0
   13.5270    7.7990   -1.3450 H   0  0  0  0  0  0  0  0  0  0  0  0
   11.3520    9.0160   -1.0350 H   0  0  0  0  0  0  0  0  0  0  0  0
   11.2400    9.2560   -2.7740 H   0  0  0  0  0  0  0  0  0  0  0  0
   11.1940    6.7700   -3.1170 H   0  0  0  0  0  0  0  0  0  0  0  0
   11.3070    6.5270   -1.3780 H   0  0  0  0  0  0  0  0  0  0  0  0
    9.1280    7.7380   -1.0690 H   0  0  0  0  0  0  0  0  0  0  0  0
    9.0150    7.9760   -2.8080 H   0  0  0  0  0  0  0  0  0  0  0  0
    8.9720    5.4900   -3.1490 H   0  0  0  0  0  0  0  0  0  0  0  0
    9.0960    5.2480   -1.4100 H   0  0  0  0  0  0  0  0  0  0  0  0
    6.9160    6.4530   -1.0890 H   0  0  0  0  0  0  0  0  0  0  0  0
    6.7890    6.6850   -2.8280 H   0  0  0  0  0  0  0  0  0  0  0  0
    6.7510    4.2000   -3.1620 H   0  0  0  0  0  0  0  0  0  0  0  0
    6.8940    3.9610   -1.4250 H   0  0  0  0  0  0  0  0  0  0  0  0
    4.7120    5.1570   -1.0820 H   0  0  0  0  0  0  0  0  0  0  0  0
    4.5360    2.9010   -3.1520 H   0  0  0  0  0  0  0  0  0  0  0  0
    4.6940    2.6650   -1.4160 H   0  0  0  0  0  0  0  0  0  0  0  0
    2.5140    3.8500   -1.0540 H   0  0  0  0  0  0  0  0  0  0  0  0
    2.3530    4.0860   -2.7890 H   0  0  0  0  0  0  0  0  0  0  0  0
    1.0030    2.1120   -2.0260 H   0  0  0  0  0  0  0  0  0  0  0  0
    2.2830    1.5920   -3.1360 H   0  0  0  0  0  0  0  0  0  0  0  0
    2.4680    1.3440   -1.3930 H   0  0  0  0  0  0  0  0  0  0  0  0
    4.5670    5.3870   -2.8210 H   0  0  0  0  0  0  0  0  0  0  0  0
   20.3240   14.1090   -1.0760 H   0  0  0  0  0  0  0  0  0  0  0  0
  1 20  1  0  0  0  0
  2  1  1  0  0  0  0
  2  3  1  0  0  0  0
  2 24  1  0  0  0  0
  3 25  1  0  0  0  0
  4  3  1  0  0  0  0
  4  5  1  0  0  0  0
  4 28  1  0  0  0  0
  5 29  1  0  0  0  0
  6  7  1  0  0  0  0
  6  5  1  0  0  0  0
  6 32  1  0  0  0  0
  7 33  1  0  0  0  0
  8  9  1  0  0  0  0
  8  7  1  0  0  0  0
  8 36  1  0  0  0  0
  9 37  1  0  0  0  0
 10 11  1  0  0  0  0
 10  9  1  0  0  0  0
 10 40  1  0  0  0  0
 11 41  1  0  0  0  0
 12 13  1  0  0  0  0
 12 11  1  0  0  0  0
 12 44  1  0  0  0  0
 13 45  1  0  0  0  0
 14 13  1  0  0  0  0
 14 15  1  0  0  0  0
 14 48  1  0  0  0  0
 15 49  1  0  0  0  0
 16 15  1  0  0  0  0
 16 17  1  0  0  0  0
 16 52  1  0  0  0  0
 17 53  1  0  0  0  0
 18 19  1  0  0  0  0
 18 17  1  0  0  0  0
 18 56  1  0  0  0  0
 21  1  1  0  0  0  0
 22  1  1  0  0  0  0
 23  2  1  0  0  0  0
 26  3  1  0  0  0  0
 27  4  1  0  0  0  0
 30  5  1  0  0  0  0
 31  6  1  0  0  0  0
 34  7  1  0  0  0  0
 35  8  1  0  0  0  0
 38  9  1  0  0  0  0
 39 10  1  0  0  0  0
 42 11  1  0  0  0  0
 43 12  1  0  0  0  0
 46 13  1  0  0  0  0
 47 14  1  0  0  0  0
 50 15  1  0  0  0  0
 51 16  1  0  0  0  0
 54 17  1  0  0  0  0
 55 18  1  0  0  0  0
 57103  1  0  0  0  0
 58 57  1  0  0  0  0
 58 59  1  0  0  0  0
 58105  1  0  0  0  0
 59106  1  0  0  0  0
 60 59  1  0  0  0  0
 60108  1  0  0  0  0
 60110  1  0  0  0  0
 61 62  1  0  0  0  0
 61 57  1  0  0  0  0
 61102  1  0  0  0  0
 62 99  1  0  0  0  0
 63 62  1  0  0  0  0
 63 64  1  0  0  0  0
 63 98  1  0  0  0  0
 64 95  1  0  0  0  0
 65 64  1  0  0  0  0
 65 66  1  0  0  0  0
 65 94  1  0  0  0  0
 66 91  1  0  0  0  0
 67 66  1  0  0  0  0
 67 68  1  0  0  0  0
 67 90  1  0  0  0  0
 68 87  1  0  0  0  0
 69 68  1  0  0  0  0
 69 70  1  0  0  0  0
 69 86  1  0  0  0  0
 70 83  1  0  0  0  0
 71 72  1  0  0  0  0
 71 70  1  0  0  0  0
 71 82  1  0  0  0  0
 72 79  1  0  0  0  0
 73 74  1  0  0  0  0
 73 72  1  0  0  0  0
 73 78  1  0  0  0  0
 74112  1  0  0  0  0
 75 74  1  0  0  0  0
 76 74  1  0  0  0  0
 77 73  1  0  0  0  0
 80 72  1  0  0  0  0
 81 71  1  0  0  0  0
 84 70  1  0  0  0  0
 85 69  1  0  0  0  0
 88 68  1  0  0  0  0
 89 67  1  0  0  0  0
 92 66  1  0  0  0  0
 93 65  1  0  0  0  0
 96 64  1  0  0  0  0
 97 63  1  0  0  0  0
100 62  1  0  0  0  0
101 61  1  0  0  0  0
104 58  1  0  0  0  0
107 59  1  0  0  0  0
109 60  1  0  0  0  0
111 57  1  0  0  0  0
M  END
