
 OpenBabel07122314413D

101120  0  0  0  0  0  0  0  0999 V2000
   -2.9970    2.2820   -1.3210 C   0  0  0  0  0  0  0  0  0  0  0  0
   -5.0860    2.1090   -0.0900 C   0  0  0  0  0  0  0  0  0  0  0  0
   -4.4200    2.1810    1.0910 C   0  0  0  0  0  0  0  0  0  0  0  0
   -2.9880    2.2830    1.0330 C   0  0  0  0  0  0  0  0  0  0  0  0
    1.1690    2.3750    1.0180 C   0  0  0  0  0  0  0  0  0  0  0  0
    1.1740    2.4130   -1.4630 C   0  0  0  0  0  0  0  0  0  0  0  0
    3.1260    2.3650   -0.4060 C   0  0  0  0  0  0  0  0  0  0  0  0
    2.5880    2.3740    0.8880 C   0  0  0  0  0  0  0  0  0  0  0  0
    4.6980    2.2870    1.1570 C   0  0  0  0  0  0  0  0  0  0  0  0
   -4.4030    2.1660   -1.2660 N   0  0  0  0  0  0  0  0  0  0  0  0
   -2.3300    2.3420   -0.1400 N   0  0  0  0  0  0  0  0  0  0  0  0
   -2.2570    2.3210    2.1530 N   0  0  0  0  0  0  0  0  0  0  0  0
    0.5370    2.4010   -0.2420 N   0  0  0  0  0  0  0  0  0  0  0  0
    2.4980    2.3880   -1.5970 N   0  0  0  0  0  0  0  0  0  0  0  0
    3.5870    2.3260    1.8490 N   0  0  0  0  0  0  0  0  0  0  0  0
    4.4870    2.3200   -0.2140 N   0  0  0  0  0  0  0  0  0  0  0  0
    0.3960    2.4710   -2.5660 N   0  0  0  0  0  0  0  0  0  0  0  0
   -2.4540    2.3110   -2.4360 O   0  0  0  0  0  0  0  0  0  0  0  0
    0.4820    2.3400    2.0590 O   0  0  0  0  0  0  0  0  0  0  0  0
   -4.8710    2.0390   -2.1560 H   0  0  0  0  0  0  0  0  0  0  0  0
   -6.1600    1.9870   -0.1580 H   0  0  0  0  0  0  0  0  0  0  0  0
   -4.9500    2.1180    2.0320 H   0  0  0  0  0  0  0  0  0  0  0  0
   -2.7090    2.1710    3.0440 H   0  0  0  0  0  0  0  0  0  0  0  0
   -1.2120    2.3310    2.1120 H   0  0  0  0  0  0  0  0  0  0  0  0
   -0.5090    2.3900   -0.2220 H   0  0  0  0  0  0  0  0  0  0  0  0
    5.6950    2.2240    1.5690 H   0  0  0  0  0  0  0  0  0  0  0  0
    5.1790    2.2140   -0.9450 H   0  0  0  0  0  0  0  0  0  0  0  0
    0.8700    2.3300   -3.4470 H   0  0  0  0  0  0  0  0  0  0  0  0
   -0.6300    2.3830   -2.5290 H   0  0  0  0  0  0  0  0  0  0  0  0
    6.1630   -0.9810    1.0350 C   0  0  0  0  0  0  0  0  0  0  0  0
    5.7910   -0.9810    2.3490 C   0  0  0  0  0  0  0  0  0  0  0  0
    4.4120   -0.9490    2.7360 C   0  0  0  0  0  0  0  0  0  0  0  0
    3.4180   -0.9420    1.7090 C   0  0  0  0  0  0  0  0  0  0  0  0
    3.8040   -0.9540    0.3410 C   0  0  0  0  0  0  0  0  0  0  0  0
    5.1890   -0.9470   -0.0170 C   0  0  0  0  0  0  0  0  0  0  0  0
    2.8140   -0.9090   -0.6750 C   0  0  0  0  0  0  0  0  0  0  0  0
    5.5460   -0.8930   -1.3710 C   0  0  0  0  0  0  0  0  0  0  0  0
    4.5830   -0.8340   -2.3890 C   0  0  0  0  0  0  0  0  0  0  0  0
    3.1960   -0.8530   -2.0400 C   0  0  0  0  0  0  0  0  0  0  0  0
    4.9350   -0.7530   -3.7770 C   0  0  0  0  0  0  0  0  0  0  0  0
    3.9810   -0.6960   -4.7510 C   0  0  0  0  0  0  0  0  0  0  0  0
    2.5830   -0.7280   -4.4330 C   0  0  0  0  0  0  0  0  0  0  0  0
    2.2030   -0.8180   -3.0570 C   0  0  0  0  0  0  0  0  0  0  0  0
    0.8270   -0.8500   -2.7090 C   0  0  0  0  0  0  0  0  0  0  0  0
    0.4430   -0.9170   -1.3390 C   0  0  0  0  0  0  0  0  0  0  0  0
    1.4320   -0.9120   -0.3240 C   0  0  0  0  0  0  0  0  0  0  0  0
    2.0430   -0.9320    2.0610 C   0  0  0  0  0  0  0  0  0  0  0  0
    1.0490   -0.9290    1.0420 C   0  0  0  0  0  0  0  0  0  0  0  0
   -0.3250   -0.9470    1.3910 C   0  0  0  0  0  0  0  0  0  0  0  0
   -1.3150   -0.9730    0.3770 C   0  0  0  0  0  0  0  0  0  0  0  0
   -0.9320   -0.9390   -0.9880 C   0  0  0  0  0  0  0  0  0  0  0  0
   -0.1660   -0.8270   -3.7230 C   0  0  0  0  0  0  0  0  0  0  0  0
   -1.5430   -0.8810   -3.3730 C   0  0  0  0  0  0  0  0  0  0  0  0
   -1.9260   -0.9560   -2.0090 C   0  0  0  0  0  0  0  0  0  0  0  0
    1.5880   -0.6840   -5.4180 C   0  0  0  0  0  0  0  0  0  0  0  0
    0.2240   -0.7380   -5.0960 C   0  0  0  0  0  0  0  0  0  0  0  0
   -2.5460   -0.8650   -4.3920 C   0  0  0  0  0  0  0  0  0  0  0  0
   -3.8960   -0.9360   -4.0260 C   0  0  0  0  0  0  0  0  0  0  0  0
   -4.2950   -1.0170   -2.6860 C   0  0  0  0  0  0  0  0  0  0  0  0
   -3.3010   -1.0100   -1.6570 C   0  0  0  0  0  0  0  0  0  0  0  0
   -2.6960   -1.0310    0.7280 C   0  0  0  0  0  0  0  0  0  0  0  0
   -3.6850   -1.0750   -0.2890 C   0  0  0  0  0  0  0  0  0  0  0  0
   -0.8040   -0.7160   -6.0960 C   0  0  0  0  0  0  0  0  0  0  0  0
   -2.1250   -0.7800   -5.7600 C   0  0  0  0  0  0  0  0  0  0  0  0
   -5.0690   -1.1430    0.0700 C   0  0  0  0  0  0  0  0  0  0  0  0
   -6.0420   -1.1630   -0.9820 C   0  0  0  0  0  0  0  0  0  0  0  0
   -5.6730   -1.0950   -2.2970 C   0  0  0  0  0  0  0  0  0  0  0  0
   -5.4260   -1.1600    1.4250 C   0  0  0  0  0  0  0  0  0  0  0  0
   -4.4660   -1.0860    2.4440 C   0  0  0  0  0  0  0  0  0  0  0  0
   -3.0790   -1.0240    2.0950 C   0  0  0  0  0  0  0  0  0  0  0  0
   -2.0860   -0.9650    3.1120 C   0  0  0  0  0  0  0  0  0  0  0  0
   -0.7110   -0.9190    2.7620 C   0  0  0  0  0  0  0  0  0  0  0  0
    0.2810   -0.8850    3.7760 C   0  0  0  0  0  0  0  0  0  0  0  0
    1.6580   -0.8870    3.4250 C   0  0  0  0  0  0  0  0  0  0  0  0
    2.6600   -0.8690    4.4440 C   0  0  0  0  0  0  0  0  0  0  0  0
    4.0120   -0.9080    4.0770 C   0  0  0  0  0  0  0  0  0  0  0  0
    2.2380   -0.8160    5.8130 C   0  0  0  0  0  0  0  0  0  0  0  0
   -0.1110   -0.8410    5.1510 C   0  0  0  0  0  0  0  0  0  0  0  0
    0.9160   -0.7990    6.1510 C   0  0  0  0  0  0  0  0  0  0  0  0
   -2.4690   -0.9190    4.4900 C   0  0  0  0  0  0  0  0  0  0  0  0
   -1.4750   -0.8500    5.4760 C   0  0  0  0  0  0  0  0  0  0  0  0
   -4.8200   -1.0450    3.8330 C   0  0  0  0  0  0  0  0  0  0  0  0
   -3.8670   -0.9580    4.8080 C   0  0  0  0  0  0  0  0  0  0  0  0
    7.2160   -0.9990    0.7630 H   0  0  0  0  0  0  0  0  0  0  0  0
    6.5470   -0.9970    3.1310 H   0  0  0  0  0  0  0  0  0  0  0  0
    6.6010   -0.8900   -1.6410 H   0  0  0  0  0  0  0  0  0  0  0  0
    5.9890   -0.7370   -4.0410 H   0  0  0  0  0  0  0  0  0  0  0  0
    4.2700   -0.6300   -5.7980 H   0  0  0  0  0  0  0  0  0  0  0  0
    1.8810   -0.6160   -6.4640 H   0  0  0  0  0  0  0  0  0  0  0  0
   -4.6560   -0.9330   -4.8050 H   0  0  0  0  0  0  0  0  0  0  0  0
   -0.5070   -0.6500   -7.1400 H   0  0  0  0  0  0  0  0  0  0  0  0
   -2.8880   -0.7650   -6.5350 H   0  0  0  0  0  0  0  0  0  0  0  0
   -7.0940   -1.2300   -0.7120 H   0  0  0  0  0  0  0  0  0  0  0  0
   -6.4300   -1.1120   -3.0780 H   0  0  0  0  0  0  0  0  0  0  0  0
   -6.4800   -1.2100    1.6930 H   0  0  0  0  0  0  0  0  0  0  0  0
    4.7710   -0.8970    4.8560 H   0  0  0  0  0  0  0  0  0  0  0  0
    3.0020   -0.7880    6.5870 H   0  0  0  0  0  0  0  0  0  0  0  0
    0.6180   -0.7580    7.1960 H   0  0  0  0  0  0  0  0  0  0  0  0
   -1.7690   -0.8150    6.5230 H   0  0  0  0  0  0  0  0  0  0  0  0
   -5.8730   -1.0870    4.0990 H   0  0  0  0  0  0  0  0  0  0  0  0
   -4.1580   -0.9260    5.8560 H   0  0  0  0  0  0  0  0  0  0  0  0
  1 10  1  0  0  0  0
  1 11  1  0  0  0  0
  2  3  2  0  0  0  0
  3 22  1  0  0  0  0
  4  3  1  0  0  0  0
  4 12  1  0  0  0  0
  5 19  2  0  0  0  0
  6 13  1  0  0  0  0
  7 16  1  0  0  0  0
  7  8  2  0  0  0  0
  8  5  1  0  0  0  0
  8 15  1  0  0  0  0
  9 26  1  0  0  0  0
  9 15  2  0  0  0  0
 10  2  1  0  0  0  0
 11  4  2  0  0  0  0
 12 23  1  0  0  0  0
 13 25  1  0  0  0  0
 13  5  1  0  0  0  0
 14  6  2  0  0  0  0
 14  7  1  0  0  0  0
 16  9  1  0  0  0  0
 17 29  1  0  0  0  0
 17  6  1  0  0  0  0
 18  1  2  0  0  0  0
 20 10  1  0  0  0  0
 21  2  1  0  0  0  0
 24 12  1  0  0  0  0
 27 16  1  0  0  0  0
 28 17  1  0  0  0  0
 30 31  2  0  0  0  0
 31 32  1  0  0  0  0
 31 85  1  0  0  0  0
 32 76  2  0  0  0  0
 33 47  1  0  0  0  0
 33 32  1  0  0  0  0
 34 33  2  0  0  0  0
 35 34  1  0  0  0  0
 35 30  1  0  0  0  0
 36 46  1  0  0  0  0
 36 34  1  0  0  0  0
 37 35  2  0  0  0  0
 38 39  1  0  0  0  0
 38 37  1  0  0  0  0
 39 36  2  0  0  0  0
 40 38  2  0  0  0  0
 41 42  2  0  0  0  0
 41 40  1  0  0  0  0
 42 43  1  0  0  0  0
 43 44  2  0  0  0  0
 43 39  1  0  0  0  0
 44 45  1  0  0  0  0
 45 51  2  0  0  0  0
 45 46  1  0  0  0  0
 46 48  2  0  0  0  0
 47 74  2  0  0  0  0
 48 49  1  0  0  0  0
 48 47  1  0  0  0  0
 49 72  1  0  0  0  0
 50 61  1  0  0  0  0
 50 49  2  0  0  0  0
 51 50  1  0  0  0  0
 52 53  2  0  0  0  0
 52 44  1  0  0  0  0
 53 54  1  0  0  0  0
 54 60  2  0  0  0  0
 54 51  1  0  0  0  0
 55 56  2  0  0  0  0
 55 42  1  0  0  0  0
 56 52  1  0  0  0  0
 57 58  2  0  0  0  0
 57 53  1  0  0  0  0
 58 59  1  0  0  0  0
 59 67  2  0  0  0  0
 59 60  1  0  0  0  0
 60 62  1  0  0  0  0
 61 70  1  0  0  0  0
 62 65  1  0  0  0  0
 62 61  2  0  0  0  0
 63 64  2  0  0  0  0
 63 56  1  0  0  0  0
 64 57  1  0  0  0  0
 65 68  1  0  0  0  0
 66 93  1  0  0  0  0
 66 65  2  0  0  0  0
 67 66  1  0  0  0  0
 68 95  1  0  0  0  0
 68 69  2  0  0  0  0
 69 82  1  0  0  0  0
 70 69  1  0  0  0  0
 70 71  2  0  0  0  0
 71 80  1  0  0  0  0
 72 71  1  0  0  0  0
 72 73  2  0  0  0  0
 73 78  1  0  0  0  0
 74 73  1  0  0  0  0
 74 75  1  0  0  0  0
 75 77  2  0  0  0  0
 76 75  1  0  0  0  0
 76 96  1  0  0  0  0
 77 79  1  0  0  0  0
 77 97  1  0  0  0  0
 78 81  1  0  0  0  0
 78 79  2  0  0  0  0
 79 98  1  0  0  0  0
 80 83  1  0  0  0  0
 80 81  2  0  0  0  0
 81 99  1  0  0  0  0
 82100  1  0  0  0  0
 82 83  2  0  0  0  0
 83101  1  0  0  0  0
 84 30  1  0  0  0  0
 86 37  1  0  0  0  0
 87 40  1  0  0  0  0
 88 41  1  0  0  0  0
 89 55  1  0  0  0  0
 90 58  1  0  0  0  0
 91 63  1  0  0  0  0
 92 64  1  0  0  0  0
 94 67  1  0  0  0  0
M  END
